grid_simulations/EVs_7kW/Result_no_control/output_voltage_peak.csv
# Result_no_control/output_voltage_peak.csv run at 2000-01-01 18:03:00 EST on 963 nodes
node_name,voltA_mag,voltA_angle,voltB_mag,voltB_angle,voltC_mag,voltC_angle
SourceBus,6668.395609,0.000000,6668.395609,4.188790,6668.395609,2.094395
Bus1,248.383686,-0.557612,248.250783,3.636114,249.321025,1.546526
Bus2,247.938093,-0.557175,247.875543,3.636060,249.121707,1.546726
Bus3,247.891382,-0.557130,247.836205,3.636054,249.100812,1.546747
Bus4,247.847621,-0.557087,247.799351,3.636049,249.081237,1.546767
Bus5,247.809468,-0.557049,247.767219,3.636044,249.064170,1.546784
Bus6,247.749363,-0.556990,247.716599,3.636037,249.037283,1.546811
Bus7,243.658555,-0.552903,244.269656,3.635532,247.206853,1.548668
Bus8,243.475431,-0.552717,244.115275,3.635509,247.124891,1.548752
Bus9,243.323020,-0.552562,243.986780,3.635490,247.056673,1.548822
Bus10,243.189271,-0.552425,243.874015,3.635473,246.996808,1.548883
Bus11,243.089473,-0.552323,243.789872,3.635461,246.952138,1.548929
Bus12,242.995789,-0.552228,243.710882,3.635449,246.910204,1.548972
Bus13,242.938183,-0.552169,243.662310,3.635442,246.884419,1.548998
Bus14,242.794774,-0.552022,243.541389,3.635424,246.820226,1.549064
Bus15,241.633232,-0.550827,242.561826,3.635277,246.300250,1.549599
Bus16,241.633232,-0.550827,242.561826,3.635277,246.300250,1.549599
Bus17,240.225132,-0.549362,241.373946,3.635097,245.669785,1.550250
Bus18,241.633232,-0.550827,242.561826,3.635277,246.300250,1.549599
Bus19,240.128265,-0.549261,241.292213,3.635085,245.626409,1.550295
Bus20,241.633232,-0.550827,242.561826,3.635277,246.300250,1.549599
Bus21,240.019498,-0.549147,241.200436,3.635071,245.577703,1.550345
Bus22,241.633232,-0.550827,242.561826,3.635277,246.300250,1.549599
Bus23,239.842410,-0.548961,241.051006,3.635048,245.498402,1.550427
Bus24,241.633232,-0.550827,242.561826,3.635277,246.300250,1.549599
Bus25,239.520265,-0.548622,240.779155,3.635006,245.354138,1.550577
Bus26,241.633232,-0.550827,242.561826,3.635277,246.300250,1.549599
Bus27,239.059183,-0.548147,240.780578,3.634979,245.359199,1.550595
Bus28,236.021527,-0.544825,237.319001,3.635472,243.367403,1.551802
Bus29,241.633232,-0.550827,242.561826,3.635277,246.300250,1.549599
Bus30,238.991234,-0.548077,240.780788,3.634975,245.359945,1.550598
Bus31,239.001654,-0.548087,240.780755,3.634976,245.359831,1.550598
Bus32,235.090691,-0.543795,236.397861,3.635599,242.838564,1.552131
Bus33,241.633232,-0.550827,242.561826,3.635277,246.300250,1.549599
Bus34,238.835630,-0.547916,240.781268,3.634966,245.361653,1.550604
Bus35,238.999706,-0.548085,240.780761,3.634975,245.359852,1.550598
Bus36,235.095482,-0.543777,235.963184,3.636053,242.839805,1.552105
Bus37,232.136495,-0.541173,234.032215,3.635579,241.200982,1.553904
Bus38,241.633232,-0.550827,242.561826,3.635277,246.300250,1.549599
Bus39,238.996904,-0.548083,240.780770,3.634975,245.359883,1.550598
Bus40,235.095656,-0.543776,235.947366,3.636069,242.839850,1.552104
Bus41,235.096206,-0.543774,235.897506,3.636121,242.839993,1.552101
Bus42,230.087437,-0.539314,232.390614,3.635565,240.065059,1.555148
Bus43,232.136495,-0.541173,234.032215,3.635579,241.200982,1.553904
Bus44,241.633232,-0.550827,242.561826,3.635277,246.300250,1.549599
Bus45,238.993312,-0.548079,240.780781,3.634975,245.359922,1.550598
Bus46,235.095735,-0.543776,235.940236,3.636077,242.839871,1.552104
Bus47,235.097948,-0.543767,235.739477,3.636287,242.840444,1.552092
Bus48,228.539588,-0.537888,231.150126,3.635554,239.206940,1.556096
Bus49,232.136495,-0.541173,234.032215,3.635579,241.200982,1.553904
Bus50,241.633232,-0.550827,242.561826,3.635277,246.300250,1.549599
Bus51,238.984563,-0.548070,240.780808,3.634975,245.360018,1.550598
Bus52,235.095818,-0.543775,235.932680,3.636084,242.839892,1.552103
Bus53,228.316458,-0.537680,230.971273,3.635553,239.083234,1.556234
Bus54,228.539588,-0.537888,231.150126,3.635554,239.206940,1.556096
Bus55,232.136495,-0.541173,234.032215,3.635579,241.200982,1.553904
Bus56,241.633232,-0.550827,242.561826,3.635277,246.300250,1.549599
Bus57,238.977073,-0.548062,240.780831,3.634974,245.360101,1.550599
Bus58,235.095898,-0.543775,235.925484,3.636092,242.839913,1.552103
Bus59,227.305862,-0.536736,230.161115,3.635546,238.522937,1.556857
Bus60,228.539588,-0.537888,231.150126,3.635554,239.206940,1.556096
Bus61,232.136495,-0.541173,234.032215,3.635579,241.200982,1.553904
Bus62,241.633232,-0.550827,242.561826,3.635277,246.300250,1.549599
Bus63,238.941165,-0.548025,240.780942,3.634972,245.360495,1.550600
Bus64,235.095945,-0.543775,235.921174,3.636097,242.839925,1.552103
Bus65,227.130134,-0.536573,229.993297,3.635601,238.399171,1.556946
Bus66,226.668637,-0.536044,230.163187,3.635506,238.529896,1.556883
Bus67,228.539588,-0.537888,231.150126,3.635554,239.206940,1.556096
Bus68,232.136495,-0.541173,234.032215,3.635579,241.200982,1.553904
Bus69,241.633232,-0.550827,242.561826,3.635277,246.300250,1.549599
Bus70,238.814247,-0.547894,240.781334,3.634964,245.361888,1.550605
Bus71,235.096038,-0.543775,235.912718,3.636105,242.839949,1.552102
Bus72,225.054443,-0.534625,228.010640,3.636259,236.937068,1.558006
Bus73,226.513653,-0.535875,230.163691,3.635496,238.531588,1.556890
Bus74,226.512182,-0.535874,230.163695,3.635496,238.531604,1.556890
Bus75,228.539588,-0.537888,231.150126,3.635554,239.206940,1.556096
Bus76,232.136495,-0.541173,234.032215,3.635579,241.200982,1.553904
Bus77,241.633232,-0.550827,242.561826,3.635277,246.300250,1.549599
Bus78,235.096511,-0.543773,235.869864,3.636150,242.840072,1.552100
Bus79,224.331113,-0.533938,227.319560,3.636492,236.427480,1.558379
Bus80,228.539588,-0.537888,231.150126,3.635554,239.206940,1.556096
Bus81,232.136495,-0.541173,234.032215,3.635579,241.200982,1.553904
Bus82,241.633232,-0.550827,242.561826,3.635277,246.300250,1.549599
Bus83,235.098290,-0.543766,235.708384,3.636319,242.840533,1.552090
Bus84,224.173273,-0.533787,227.168745,3.636542,236.316275,1.558461
Bus85,228.539588,-0.537888,231.150126,3.635554,239.206940,1.556096
Bus86,232.136495,-0.541173,234.032215,3.635579,241.200982,1.553904
Bus87,241.633232,-0.550827,242.561826,3.635277,246.300250,1.549599
Bus88,223.853213,-0.533481,226.862919,3.636646,236.090775,1.558626
Bus89,228.539588,-0.537888,231.150126,3.635554,239.206940,1.556096
Bus90,232.136495,-0.541173,234.032215,3.635579,241.200982,1.553904
Bus91,241.633232,-0.550827,242.561826,3.635277,246.300250,1.549599
Bus92,223.551402,-0.533191,226.574512,3.636743,235.878124,1.558783
Bus93,232.136495,-0.541173,234.032215,3.635579,241.200982,1.553904
Bus94,241.633232,-0.550827,242.561826,3.635277,246.300250,1.549599
Bus95,223.375987,-0.533023,226.406881,3.636800,235.754525,1.558874
Bus96,232.136495,-0.541173,234.032215,3.635579,241.200982,1.553904
Bus97,241.633232,-0.550827,242.561826,3.635277,246.300250,1.549599
Bus98,223.260141,-0.532911,226.296173,3.636838,235.672899,1.558934
Bus99,232.136495,-0.541173,234.032215,3.635579,241.200982,1.553904
Bus100,241.633232,-0.550827,242.561826,3.635277,246.300250,1.549599
Bus101,223.100196,-0.532757,226.143317,3.636890,235.560197,1.559017
Bus102,232.136495,-0.541173,234.032215,3.635579,241.200982,1.553904
Bus103,241.633232,-0.550827,242.561826,3.635277,246.300250,1.549599
Bus104,223.100417,-0.532758,226.139259,3.636890,235.557434,1.559008
Bus105,222.992893,-0.532663,226.062596,3.636888,235.499769,1.559092
Bus106,232.136495,-0.541173,234.032215,3.635579,241.200982,1.553904
Bus107,223.100685,-0.532759,226.134349,3.636889,235.554090,1.558998
Bus108,222.932049,-0.532610,226.016824,3.636887,235.465503,1.559135
Bus109,232.136495,-0.541173,234.032215,3.635579,241.200982,1.553904
Bus110,223.100995,-0.532760,226.128658,3.636889,235.550215,1.558986
Bus111,220.531790,-0.530481,224.210768,3.636847,234.113832,1.560835
Bus112,232.136495,-0.541173,234.032215,3.635579,241.200982,1.553904
Bus113,223.101468,-0.532762,226.119981,3.636888,235.544307,1.558967
Bus114,220.291392,-0.530265,224.029840,3.636843,233.978462,1.561007
Bus115,232.136495,-0.541173,234.032215,3.635579,241.200982,1.553904
Bus116,223.102076,-0.532764,226.108826,3.636887,235.536711,1.558944
Bus117,220.288736,-0.530273,224.018493,3.636838,233.969200,1.560984
Bus118,219.571038,-0.529922,223.573278,3.636440,233.647169,1.561403
Bus119,232.136495,-0.541173,234.032215,3.635579,241.200982,1.553904
Bus120,223.102513,-0.532766,226.100817,3.636887,235.531259,1.558926
Bus121,220.288736,-0.530273,224.018493,3.636838,233.969200,1.560984
Bus122,220.287442,-0.530277,224.012967,3.636835,233.964690,1.560973
Bus123,218.272038,-0.529296,222.750020,3.635710,233.049818,1.562121
Bus124,232.136495,-0.541173,234.032215,3.635579,241.200982,1.553904
Bus125,223.103130,-0.532768,226.089502,3.636886,235.523554,1.558902
Bus126,220.288736,-0.530273,224.018493,3.636838,233.969200,1.560984
Bus127,220.281367,-0.530294,223.987012,3.636824,233.943505,1.560921
Bus128,217.687907,-0.529012,222.379840,3.635380,232.781229,1.562445
Bus129,232.136495,-0.541173,234.032215,3.635579,241.200982,1.553904
Bus130,223.103797,-0.532770,226.077259,3.636885,235.515218,1.558876
Bus131,220.288736,-0.530273,224.018493,3.636838,233.969200,1.560984
Bus132,220.079105,-0.530068,223.987685,3.636811,233.945709,1.560930
Bus133,220.324100,-0.530320,223.906605,3.636903,233.864967,1.560698
Bus134,217.514115,-0.528928,222.269706,3.635282,232.701321,1.562542
Bus135,232.136495,-0.541173,234.032215,3.635579,241.200982,1.553904
Bus136,223.104427,-0.532773,226.065713,3.636884,235.507357,1.558852
Bus137,220.288736,-0.530273,224.018493,3.636838,233.969200,1.560984
Bus138,220.061686,-0.530048,223.987743,3.636810,233.945899,1.560931
Bus139,220.355892,-0.530339,223.846787,3.636962,233.806546,1.560532
Bus140,217.317941,-0.528832,222.145389,3.635171,232.611123,1.562651
Bus141,232.136495,-0.541173,234.032215,3.635579,241.200982,1.553904
Bus142,223.105462,-0.532776,226.046729,3.636882,235.494432,1.558811
Bus143,220.288736,-0.530273,224.018493,3.636838,233.969200,1.560984
Bus144,220.044596,-0.530029,223.987800,3.636809,233.946085,1.560931
Bus145,220.377182,-0.530352,223.806729,3.637001,233.767426,1.560420
Bus146,217.133444,-0.528741,222.028474,3.635066,232.526297,1.562753
Bus147,232.136495,-0.541173,234.032215,3.635579,241.200982,1.553904
Bus148,223.110383,-0.532795,225.956467,3.636875,235.432982,1.558619
Bus149,220.288736,-0.530273,224.018493,3.636838,233.969200,1.560984
Bus150,220.030796,-0.530014,223.987845,3.636808,233.946235,1.560932
Bus151,220.381684,-0.530436,223.820099,3.637061,233.723231,1.560404
Bus152,220.382589,-0.530331,223.320843,3.637536,233.768771,1.560390
Bus153,216.918173,-0.528636,221.892059,3.634944,232.427323,1.562873
Bus154,232.136495,-0.541173,234.032215,3.635579,241.200982,1.553904
Bus155,223.111455,-0.532799,225.936804,3.636874,235.419597,1.558577
Bus156,220.288736,-0.530273,224.018493,3.636838,233.969200,1.560984
Bus157,220.010084,-0.529990,223.987914,3.636807,233.946461,1.560933
Bus158,220.393631,-0.530657,223.855560,3.637219,233.606021,1.560361
Bus159,220.382918,-0.530330,223.291271,3.637568,233.768853,1.560389
Bus160,216.856231,-0.528606,221.852807,3.634909,232.398845,1.562908
Bus161,232.136495,-0.541173,234.032215,3.635579,241.200982,1.553904
Bus162,223.116623,-0.532779,225.471819,3.637382,235.420890,1.558549
Bus163,223.105152,-0.532857,225.895476,3.636881,235.365787,1.558477
Bus164,220.288736,-0.530273,224.018493,3.636838,233.969200,1.560984
Bus165,219.985113,-0.529962,223.987997,3.636805,233.946733,1.560934
Bus166,220.397783,-0.530733,223.867880,3.637274,233.565307,1.560347
Bus167,220.383218,-0.530329,223.264256,3.637598,233.768927,1.560387
Bus168,216.504330,-0.528433,221.629815,3.634708,232.237059,1.563104
Bus169,232.136495,-0.541173,234.032215,3.635579,241.200982,1.553904
Bus170,223.117599,-0.532775,225.383982,3.637478,235.421135,1.558543
Bus171,223.096786,-0.532934,225.840608,3.636889,235.294353,1.558344
Bus172,220.288736,-0.530273,224.018493,3.636838,233.969200,1.560984
Bus173,219.966248,-0.529941,223.988060,3.636804,233.946939,1.560935
Bus174,220.397783,-0.530733,223.867880,3.637274,233.565307,1.560347
Bus175,220.398762,-0.530755,223.871424,3.637289,233.235681,1.560694
Bus176,220.383343,-0.530328,223.253033,3.637610,233.768958,1.560386
Bus177,216.305577,-0.528335,221.503872,3.634595,232.145686,1.563215
Bus178,223.119613,-0.532767,225.202764,3.637677,235.421639,1.558532
Bus179,223.093757,-0.532917,225.826567,3.636870,235.298158,1.558327
Bus180,223.097398,-0.532947,225.842822,3.636898,235.088666,1.558559
Bus181,220.288736,-0.530273,224.018493,3.636838,233.969200,1.560984
Bus182,219.944419,-0.529917,223.988133,3.636803,233.947177,1.560936
Bus183,220.397783,-0.530733,223.867880,3.637274,233.565307,1.560347
Bus184,220.398867,-0.530757,223.871807,3.637291,233.200082,1.560732
Bus185,220.383612,-0.530327,223.228843,3.637637,233.769025,1.560385
Bus186,216.158038,-0.528262,221.410382,3.634511,232.077858,1.563297
Bus187,223.081840,-0.532852,225.771313,3.636792,235.313131,1.558262
Bus188,223.099933,-0.533002,225.851985,3.636936,234.237487,1.559452
Bus189,220.288736,-0.530273,224.018493,3.636838,233.969200,1.560984
Bus190,219.923893,-0.529894,223.988201,3.636802,233.947400,1.560936
Bus191,220.397783,-0.530733,223.867880,3.637274,233.565307,1.560347
Bus192,220.397783,-0.530733,223.867880,3.637274,233.565307,1.560347
Bus193,220.398970,-0.530759,223.872177,3.637292,233.165649,1.560768
Bus194,220.384298,-0.530325,223.167233,3.637705,233.769196,1.560381
Bus195,216.025395,-0.528196,221.326333,3.634435,232.016880,1.563371
Bus196,223.060564,-0.532736,225.672663,3.636653,235.339867,1.558145
Bus197,223.100144,-0.533006,225.852746,3.636939,234.166866,1.559527
Bus198,223.100098,-0.533005,225.852581,3.636938,234.182165,1.559510
Bus199,220.288736,-0.530273,224.018493,3.636838,233.969200,1.560984
Bus200,219.901809,-0.529869,223.988274,3.636800,233.947641,1.560937
...
SourceBus_1,6633.215899,-0.007578,6637.832549,4.182742,6644.310489,2.086981
LOAD1,238.835630,-0.547916,240.781268,3.634966,245.361653,1.550604
LOAD2,235.097948,-0.543767,235.739477,3.636287,242.840444,1.552092
LOAD3,238.814247,-0.547894,240.781334,3.634964,245.361888,1.550605
LOAD4,226.513653,-0.535875,230.163691,3.635496,238.531588,1.556890
LOAD5,226.512182,-0.535874,230.163695,3.635496,238.531604,1.556890
LOAD6,235.098290,-0.543766,235.708384,3.636319,242.840533,1.552090
LOAD7,223.119613,-0.532767,225.202764,3.637677,235.421639,1.558532
LOAD8,223.100675,-0.533018,225.854668,3.636947,233.988326,1.559715
LOAD9,222.299016,-0.531893,225.675170,3.636605,235.348163,1.558177
LOAD10,223.104167,-0.532559,224.276997,3.638045,235.352516,1.557901
LOAD11,223.104094,-0.532559,224.283533,3.638038,235.352498,1.557901
LOAD12,223.101133,-0.533028,225.856318,3.636954,233.835084,1.559877
LOAD13,220.393220,-0.530290,222.365596,3.638593,233.771415,1.560331
LOAD14,219.522008,-0.529442,223.989537,3.636776,233.951780,1.560953
LOAD15,220.391061,-0.530298,222.559631,3.638378,233.770877,1.560343
LOAD16,220.401059,-0.530805,223.879739,3.637324,232.462428,1.561514
LOAD17,220.400581,-0.530795,223.878013,3.637316,232.622974,1.561343
LOAD18,210.329835,-0.522637,217.952817,3.629914,229.963482,1.567517
LOAD19,214.014935,-0.527264,220.002142,3.633423,230.273452,1.565252
LOAD20,210.793756,-0.523580,218.757411,3.630964,230.774450,1.566032
LOAD21,214.117031,-0.526841,220.512543,3.633656,231.431725,1.564120
LOAD22,210.666245,-0.523431,218.757857,3.630956,230.775838,1.566037
LOAD23,209.496085,-0.520731,216.703800,3.629494,230.936432,1.566877
LOAD24,212.596938,-0.526461,218.660273,3.633236,229.218672,1.565621
LOAD25,201.783121,-0.507417,214.262913,3.619210,232.496625,1.570707
LOAD26,210.066066,-0.522489,214.632951,3.633133,228.749042,1.563297
LOAD27,212.062157,-0.526053,217.941662,3.633418,228.505923,1.565710
LOAD28,212.062682,-0.526065,217.943548,3.633427,228.329124,1.565901
LOAD29,200.948846,-0.504872,213.123694,3.618994,232.530166,1.570024
LOAD30,201.843083,-0.507490,214.262680,3.619214,232.495979,1.570705
LOAD31,200.872934,-0.504779,213.123992,3.618989,232.530981,1.570027
LOAD32,209.399776,-0.521830,214.443225,3.632278,227.971502,1.563956
LOAD33,202.870805,-0.505997,211.937958,3.621486,231.431378,1.568547
LOAD34,203.654109,-0.510865,215.117367,3.621136,232.185002,1.570126
LOAD35,202.975353,-0.505482,210.899404,3.622623,232.058159,1.567318
LOAD36,202.786919,-0.505697,210.737749,3.622436,232.232515,1.568037
LOAD37,202.787384,-0.505695,210.697365,3.622483,232.232613,1.568034
LOAD38,208.587624,-0.520694,213.157418,3.632172,228.327805,1.563460
LOAD39,207.952437,-0.520076,212.924194,3.631525,227.020188,1.564269
LOAD40,207.517225,-0.518713,211.495080,3.631884,227.858694,1.562667
LOAD41,206.442492,-0.514766,207.990694,3.633990,227.308115,1.560814
LOAD42,207.952571,-0.520079,212.924697,3.631527,226.973037,1.564320
LOAD43,205.672764,-0.514492,208.907957,3.632592,225.442614,1.562982
LOAD44,209.827632,-0.522161,214.136836,3.633272,228.653885,1.563245
LOAD45,206.443119,-0.514764,207.935290,3.634055,227.308264,1.560811
LOAD46,205.915438,-0.517614,213.568989,3.631099,228.299781,1.563726
LOAD47,205.672848,-0.514494,208.908283,3.632594,225.412157,1.563016
LOAD48,206.013533,-0.517732,213.568638,3.631105,228.298721,1.563722
LOAD49,205.803455,-0.517480,213.569390,3.631091,228.300991,1.563731
LOAD50,204.995691,-0.509920,205.659876,3.633452,227.325019,1.559472
LOAD51,205.512190,-0.515388,211.086146,3.630750,227.770118,1.562529
LOAD52,203.208034,-0.509469,207.853476,3.630935,227.242905,1.561193
LOAD53,204.995691,-0.509920,205.576052,3.633556,227.325019,1.559472
LOAD54,205.247337,-0.515070,211.087105,3.630733,227.772970,1.562540
LOAD55,203.274497,-0.509475,207.859364,3.630826,227.259965,1.561263
